/*--------------------------------*- C++ -*----------------------------------*\
| =========                 |                                                 |
| \\      /  F ield         | OpenFOAM: The Open Source CFD Toolbox           |
|  \\    /   O peration     | Version:  v2012                                 |
|   \\  /    A nd           | Website:  www.openfoam.com                      |
|    \\/     M anipulation  |                                                 |
\*---------------------------------------------------------------------------*/
FoamFile
{
    version     2.0;
    format      ascii;
    class       dictionary;
    object      blockMeshDict;
}
// * * * * * * * * * * * * * * * * * * * * * * * * * * * * * * * * * * * * * //

scale   0.001;

vertices
(
    (0 0 -20)
    (0 0 20)
    (20 0 20)
    (20 0 -20)
    (0 15 -20)
    (0 15 20)
    (20 15 20)
    (20 15 -20)
);

blocks
(
    hex (0 1 2 3 4 5 6 7) (81 81 60) simpleGrading (1 1 1)
);

edges
(
);

patches
(
    wall walls
    (
        (2 6 5 1)
        (0 4 7 3)
        (0 1 5 4)
        (4 5 6 7)
        (7 6 2 3)
        (3 2 1 0)
    )
);

mergePatchPairs
(
);

// ************************************************************************* //
