/*--------------------------------*- C++ -*----------------------------------*\
| =========                 |                                                 |
| \\      /  F ield         | OpenFOAM: The Open Source CFD Toolbox           |
|  \\    /   O peration     | Version:  v2012                                 |
|   \\  /    A nd           | Website:  www.openfoam.com                      |
|    \\/     M anipulation  |                                                 |
\*---------------------------------------------------------------------------*/
FoamFile
{
    version     2.0;
    format      ascii;
    class       volScalarField;
    object      Ydefault;
}
// ************************************************************************* //

dimensions          [0 0 0 0 0 0 0];

internalField       uniform 0;

boundaryField
{
    walls
    {
        type                zeroGradient;
    }side
    {
            type                 slip;
            physical type        slip;
    }
slip1
    {
            type                slip;
            physical type       slip;
    }

}

// ************************************************************************* //
